/*--------------------------------*- C++ -*----------------------------------*\
| =========                 |                                                 |
| \\      /  F ield         | OpenFOAM: The Open Source CFD Toolbox           |
|  \\    /   O peration     | Version:  2312                                  |
|   \\  /    A nd           | Website:  www.openfoam.com                      |
|    \\/     M anipulation  |                                                 |
\*---------------------------------------------------------------------------*/
FoamFile
{
    version     2.0;
    format      ascii;
    arch        "LSB;label=32;scalar=64";
    class       polyBoundaryMesh;
    location    "constant/polyMesh";
    object      boundary;
}
// * * * * * * * * * * * * * * * * * * * * * * * * * * * * * * * * * * * * * //

7
(
    out
    {
        type            patch;
        nFaces          160;
        startFace       73160;
    }
    sym1
    {
        type            symmetryPlane;
        inGroups        1(symmetryPlane);
        nFaces          200;
        startFace       73320;
    }
    sym2
    {
        type            symmetryPlane;
        inGroups        1(symmetryPlane);
        nFaces          200;
        startFace       73520;
    }
    in
    {
        type            patch;
        nFaces          160;
        startFace       73720;
    }
    cylinder
    {
        type            wall;
        inGroups        1(wall);
        nFaces          160;
        startFace       73880;
    }
    back
    {
        type            empty;
        inGroups        1(empty);
        nFaces          36800;
        startFace       74040;
    }
    front
    {
        type            empty;
        inGroups        1(empty);
        nFaces          36800;
        startFace       110840;
    }
)

// ************************************************************************* //
